./stringsearch/1024_nset16_bsize16_asso4_status.txt:sim_num_insn                 300951 # total number of instructions committed
./stringsearch/1024_nset16_bsize32_asso2_status.txt:sim_num_insn                 300951 # total number of instructions committed
./stringsearch/1024_nset16_bsize64_asso1_status.txt:sim_num_insn                 300951 # total number of instructions committed
./stringsearch/1024_nset1_bsize128_asso8_status.txt:sim_num_insn                 300951 # total number of instructions committed
./stringsearch/1024_nset1_bsize256_asso4_status.txt:sim_num_insn                 300951 # total number of instructions committed
./stringsearch/1024_nset1_bsize32_asso32_status.txt:sim_num_insn                 300951 # total number of instructions committed
./stringsearch/1024_nset1_bsize64_asso16_status.txt:sim_num_insn                 300951 # total number of instructions committed
./stringsearch/1024_nset2_bsize128_asso4_status.txt:sim_num_insn                 300951 # total number of instructions committed
./stringsearch/1024_nset2_bsize16_asso32_status.txt:sim_num_insn                 300951 # total number of instructions committed
./stringsearch/1024_nset2_bsize256_asso2_status.txt:sim_num_insn                 300951 # total number of instructions committed
./stringsearch/1024_nset2_bsize32_asso16_status.txt:sim_num_insn                 300951 # total number of instructions committed
./stringsearch/1024_nset2_bsize64_asso8_status.txt:sim_num_insn                 300951 # total number of instructions committed
./stringsearch/1024_nset32_bsize16_asso2_status.txt:sim_num_insn                 300951 # total number of instructions committed
./stringsearch/1024_nset32_bsize32_asso1_status.txt:sim_num_insn                 300951 # total number of instructions committed
./stringsearch/1024_nset4_bsize128_asso2_status.txt:sim_num_insn                 300951 # total number of instructions committed
./stringsearch/1024_nset4_bsize16_asso16_status.txt:sim_num_insn                 300951 # total number of instructions committed
./stringsearch/1024_nset4_bsize256_asso1_status.txt:sim_num_insn                 300951 # total number of instructions committed
./stringsearch/1024_nset4_bsize32_asso8_status.txt:sim_num_insn                 300951 # total number of instructions committed
./stringsearch/1024_nset4_bsize64_asso4_status.txt:sim_num_insn                 300951 # total number of instructions committed
./stringsearch/1024_nset8_bsize128_asso1_status.txt:sim_num_insn                 300951 # total number of instructions committed
./stringsearch/1024_nset8_bsize16_asso8_status.txt:sim_num_insn                 300951 # total number of instructions committed
./stringsearch/1024_nset8_bsize32_asso4_status.txt:sim_num_insn                 300951 # total number of instructions committed
./stringsearch/1024_nset8_bsize64_asso2_status.txt:sim_num_insn                 300951 # total number of instructions committed
./stringsearch/128_nset1_bsize128_asso1_status.txt:sim_num_insn                 300951 # total number of instructions committed
./stringsearch/128_nset1_bsize16_asso8_status.txt:sim_num_insn                 300951 # total number of instructions committed
./stringsearch/128_nset1_bsize32_asso4_status.txt:sim_num_insn                 300951 # total number of instructions committed
./stringsearch/128_nset1_bsize64_asso2_status.txt:sim_num_insn                 300951 # total number of instructions committed
./stringsearch/128_nset2_bsize16_asso4_status.txt:sim_num_insn                 300951 # total number of instructions committed
./stringsearch/128_nset2_bsize32_asso2_status.txt:sim_num_insn                 300951 # total number of instructions committed
./stringsearch/128_nset2_bsize64_asso1_status.txt:sim_num_insn                 300951 # total number of instructions committed
./stringsearch/128_nset4_bsize16_asso2_status.txt:sim_num_insn                 300951 # total number of instructions committed
./stringsearch/128_nset4_bsize32_asso1_status.txt:sim_num_insn                 300951 # total number of instructions committed
./stringsearch/128_nset8_bsize16_asso1_status.txt:sim_num_insn                 300951 # total number of instructions committed
./stringsearch/131072_nset16_bsize256_asso32_status.txt:sim_num_insn                 300951 # total number of instructions committed
./stringsearch/131072_nset32_bsize128_asso32_status.txt:sim_num_insn                 300951 # total number of instructions committed
./stringsearch/131072_nset32_bsize256_asso16_status.txt:sim_num_insn                 300951 # total number of instructions committed
./stringsearch/16384_nset16_bsize128_asso8_status.txt:sim_num_insn                 300951 # total number of instructions committed
./stringsearch/16384_nset16_bsize256_asso4_status.txt:sim_num_insn                 300951 # total number of instructions committed
./stringsearch/16384_nset16_bsize32_asso32_status.txt:sim_num_insn                 300951 # total number of instructions committed
./stringsearch/16384_nset16_bsize64_asso16_status.txt:sim_num_insn                 300951 # total number of instructions committed
./stringsearch/16384_nset2_bsize256_asso32_status.txt:sim_num_insn                 300951 # total number of instructions committed
./stringsearch/16384_nset32_bsize128_asso4_status.txt:sim_num_insn                 300951 # total number of instructions committed
./stringsearch/16384_nset32_bsize16_asso32_status.txt:sim_num_insn                 300951 # total number of instructions committed
./stringsearch/16384_nset32_bsize256_asso2_status.txt:sim_num_insn                 300951 # total number of instructions committed
./stringsearch/16384_nset32_bsize32_asso16_status.txt:sim_num_insn                 300951 # total number of instructions committed
./stringsearch/16384_nset32_bsize64_asso8_status.txt:sim_num_insn                 300951 # total number of instructions committed
./stringsearch/16384_nset4_bsize128_asso32_status.txt:sim_num_insn                 300951 # total number of instructions committed
./stringsearch/16384_nset4_bsize256_asso16_status.txt:sim_num_insn                 300951 # total number of instructions committed
./stringsearch/16384_nset8_bsize128_asso16_status.txt:sim_num_insn                 300951 # total number of instructions committed
./stringsearch/16384_nset8_bsize256_asso8_status.txt:sim_num_insn                 300951 # total number of instructions committed
./stringsearch/16384_nset8_bsize64_asso32_status.txt:sim_num_insn                 300951 # total number of instructions committed
./stringsearch/16_nset1_bsize16_asso1_status.txt:sim_num_insn                 300951 # total number of instructions committed
./stringsearch/2048_nset16_bsize128_asso1_status.txt:sim_num_insn                 300951 # total number of instructions committed
./stringsearch/2048_nset16_bsize16_asso8_status.txt:sim_num_insn                 300951 # total number of instructions committed
./stringsearch/2048_nset16_bsize32_asso4_status.txt:sim_num_insn                 300951 # total number of instructions committed
./stringsearch/2048_nset16_bsize64_asso2_status.txt:sim_num_insn                 300951 # total number of instructions committed
./stringsearch/2048_nset1_bsize128_asso16_status.txt:sim_num_insn                 300951 # total number of instructions committed
./stringsearch/2048_nset1_bsize256_asso8_status.txt:sim_num_insn                 300951 # total number of instructions committed
./stringsearch/2048_nset1_bsize64_asso32_status.txt:sim_num_insn                 300951 # total number of instructions committed
./stringsearch/2048_nset2_bsize128_asso8_status.txt:sim_num_insn                 300951 # total number of instructions committed
./stringsearch/2048_nset2_bsize256_asso4_status.txt:sim_num_insn                 300951 # total number of instructions committed
./stringsearch/2048_nset2_bsize32_asso32_status.txt:sim_num_insn                 300951 # total number of instructions committed
./stringsearch/2048_nset2_bsize64_asso16_status.txt:sim_num_insn                 300951 # total number of instructions committed
./stringsearch/2048_nset32_bsize16_asso4_status.txt:sim_num_insn                 300951 # total number of instructions committed
./stringsearch/2048_nset32_bsize32_asso2_status.txt:sim_num_insn                 300951 # total number of instructions committed
./stringsearch/2048_nset32_bsize64_asso1_status.txt:sim_num_insn                 300951 # total number of instructions committed
./stringsearch/2048_nset4_bsize128_asso4_status.txt:sim_num_insn                 300951 # total number of instructions committed
./stringsearch/2048_nset4_bsize16_asso32_status.txt:sim_num_insn                 300951 # total number of instructions committed
./stringsearch/2048_nset4_bsize256_asso2_status.txt:sim_num_insn                 300951 # total number of instructions committed
./stringsearch/2048_nset4_bsize32_asso16_status.txt:sim_num_insn                 300951 # total number of instructions committed
./stringsearch/2048_nset4_bsize64_asso8_status.txt:sim_num_insn                 300951 # total number of instructions committed
./stringsearch/2048_nset8_bsize128_asso2_status.txt:sim_num_insn                 300951 # total number of instructions committed
./stringsearch/2048_nset8_bsize16_asso16_status.txt:sim_num_insn                 300951 # total number of instructions committed
./stringsearch/2048_nset8_bsize256_asso1_status.txt:sim_num_insn                 300951 # total number of instructions committed
./stringsearch/2048_nset8_bsize32_asso8_status.txt:sim_num_insn                 300951 # total number of instructions committed
./stringsearch/2048_nset8_bsize64_asso4_status.txt:sim_num_insn                 300951 # total number of instructions committed
./stringsearch/256_nset16_bsize16_asso1_status.txt:sim_num_insn                 300951 # total number of instructions committed
./stringsearch/256_nset1_bsize128_asso2_status.txt:sim_num_insn                 300951 # total number of instructions committed
./stringsearch/256_nset1_bsize16_asso16_status.txt:sim_num_insn                 300951 # total number of instructions committed
./stringsearch/256_nset1_bsize256_asso1_status.txt:sim_num_insn                 300951 # total number of instructions committed
./stringsearch/256_nset1_bsize32_asso8_status.txt:sim_num_insn                 300951 # total number of instructions committed
./stringsearch/256_nset1_bsize64_asso4_status.txt:sim_num_insn                 300951 # total number of instructions committed
./stringsearch/256_nset2_bsize128_asso1_status.txt:sim_num_insn                 300951 # total number of instructions committed
./stringsearch/256_nset2_bsize16_asso8_status.txt:sim_num_insn                 300951 # total number of instructions committed
./stringsearch/256_nset2_bsize32_asso4_status.txt:sim_num_insn                 300951 # total number of instructions committed
./stringsearch/256_nset2_bsize64_asso2_status.txt:sim_num_insn                 300951 # total number of instructions committed
./stringsearch/256_nset4_bsize16_asso4_status.txt:sim_num_insn                 300951 # total number of instructions committed
./stringsearch/256_nset4_bsize32_asso2_status.txt:sim_num_insn                 300951 # total number of instructions committed
./stringsearch/256_nset4_bsize64_asso1_status.txt:sim_num_insn                 300951 # total number of instructions committed
./stringsearch/256_nset8_bsize16_asso2_status.txt:sim_num_insn                 300951 # total number of instructions committed
./stringsearch/256_nset8_bsize32_asso1_status.txt:sim_num_insn                 300951 # total number of instructions committed
./stringsearch/262144_nset32_bsize256_asso32_status.txt:sim_num_insn                 300951 # total number of instructions committed
./stringsearch/32768_nset16_bsize128_asso16_status.txt:sim_num_insn                 300951 # total number of instructions committed
./stringsearch/32768_nset16_bsize256_asso8_status.txt:sim_num_insn                 300951 # total number of instructions committed
./stringsearch/32768_nset16_bsize64_asso32_status.txt:sim_num_insn                 300951 # total number of instructions committed
./stringsearch/32768_nset32_bsize128_asso8_status.txt:sim_num_insn                 300951 # total number of instructions committed
./stringsearch/32768_nset32_bsize256_asso4_status.txt:sim_num_insn                 300951 # total number of instructions committed
./stringsearch/32768_nset32_bsize32_asso32_status.txt:sim_num_insn                 300951 # total number of instructions committed
./stringsearch/32768_nset32_bsize64_asso16_status.txt:sim_num_insn                 300951 # total number of instructions committed
./stringsearch/32768_nset4_bsize256_asso32_status.txt:sim_num_insn                 300951 # total number of instructions committed
./stringsearch/32768_nset8_bsize128_asso32_status.txt:sim_num_insn                 300951 # total number of instructions committed
./stringsearch/32768_nset8_bsize256_asso16_status.txt:sim_num_insn                 300951 # total number of instructions committed
./stringsearch/32_nset1_bsize16_asso2_status.txt:sim_num_insn                 300951 # total number of instructions committed
./stringsearch/32_nset1_bsize32_asso1_status.txt:sim_num_insn                 300951 # total number of instructions committed
./stringsearch/32_nset2_bsize16_asso1_status.txt:sim_num_insn                 300951 # total number of instructions committed
./stringsearch/4096_nset16_bsize128_asso2_status.txt:sim_num_insn                 300951 # total number of instructions committed
./stringsearch/4096_nset16_bsize16_asso16_status.txt:sim_num_insn                 300951 # total number of instructions committed
./stringsearch/4096_nset16_bsize256_asso1_status.txt:sim_num_insn                 300951 # total number of instructions committed
./stringsearch/4096_nset16_bsize32_asso8_status.txt:sim_num_insn                 300951 # total number of instructions committed
./stringsearch/4096_nset16_bsize64_asso4_status.txt:sim_num_insn                 300951 # total number of instructions committed
./stringsearch/4096_nset1_bsize128_asso32_status.txt:sim_num_insn                 300951 # total number of instructions committed
./stringsearch/4096_nset1_bsize256_asso16_status.txt:sim_num_insn                 300951 # total number of instructions committed
./stringsearch/4096_nset2_bsize128_asso16_status.txt:sim_num_insn                 300951 # total number of instructions committed
./stringsearch/4096_nset2_bsize256_asso8_status.txt:sim_num_insn                 300951 # total number of instructions committed
./stringsearch/4096_nset2_bsize64_asso32_status.txt:sim_num_insn                 300951 # total number of instructions committed
./stringsearch/4096_nset32_bsize128_asso1_status.txt:sim_num_insn                 300951 # total number of instructions committed
./stringsearch/4096_nset32_bsize16_asso8_status.txt:sim_num_insn                 300951 # total number of instructions committed
./stringsearch/4096_nset32_bsize32_asso4_status.txt:sim_num_insn                 300951 # total number of instructions committed
./stringsearch/4096_nset32_bsize64_asso2_status.txt:sim_num_insn                 300951 # total number of instructions committed
./stringsearch/4096_nset4_bsize128_asso8_status.txt:sim_num_insn                 300951 # total number of instructions committed
./stringsearch/4096_nset4_bsize256_asso4_status.txt:sim_num_insn                 300951 # total number of instructions committed
./stringsearch/4096_nset4_bsize32_asso32_status.txt:sim_num_insn                 300951 # total number of instructions committed
./stringsearch/4096_nset4_bsize64_asso16_status.txt:sim_num_insn                 300951 # total number of instructions committed
./stringsearch/4096_nset8_bsize128_asso4_status.txt:sim_num_insn                 300951 # total number of instructions committed
./stringsearch/4096_nset8_bsize16_asso32_status.txt:sim_num_insn                 300951 # total number of instructions committed
./stringsearch/4096_nset8_bsize256_asso2_status.txt:sim_num_insn                 300951 # total number of instructions committed
./stringsearch/4096_nset8_bsize32_asso16_status.txt:sim_num_insn                 300951 # total number of instructions committed
./stringsearch/4096_nset8_bsize64_asso8_status.txt:sim_num_insn                 300951 # total number of instructions committed
./stringsearch/512_nset16_bsize16_asso2_status.txt:sim_num_insn                 300951 # total number of instructions committed
./stringsearch/512_nset16_bsize32_asso1_status.txt:sim_num_insn                 300951 # total number of instructions committed
./stringsearch/512_nset1_bsize128_asso4_status.txt:sim_num_insn                 300951 # total number of instructions committed
./stringsearch/512_nset1_bsize16_asso32_status.txt:sim_num_insn                 300951 # total number of instructions committed
./stringsearch/512_nset1_bsize256_asso2_status.txt:sim_num_insn                 300951 # total number of instructions committed
./stringsearch/512_nset1_bsize32_asso16_status.txt:sim_num_insn                 300951 # total number of instructions committed
./stringsearch/512_nset1_bsize64_asso8_status.txt:sim_num_insn                 300951 # total number of instructions committed
./stringsearch/512_nset2_bsize128_asso2_status.txt:sim_num_insn                 300951 # total number of instructions committed
./stringsearch/512_nset2_bsize16_asso16_status.txt:sim_num_insn                 300951 # total number of instructions committed
./stringsearch/512_nset2_bsize256_asso1_status.txt:sim_num_insn                 300951 # total number of instructions committed
./stringsearch/512_nset2_bsize32_asso8_status.txt:sim_num_insn                 300951 # total number of instructions committed
./stringsearch/512_nset2_bsize64_asso4_status.txt:sim_num_insn                 300951 # total number of instructions committed
./stringsearch/512_nset32_bsize16_asso1_status.txt:sim_num_insn                 300951 # total number of instructions committed
./stringsearch/512_nset4_bsize128_asso1_status.txt:sim_num_insn                 300951 # total number of instructions committed
./stringsearch/512_nset4_bsize16_asso8_status.txt:sim_num_insn                 300951 # total number of instructions committed
./stringsearch/512_nset4_bsize32_asso4_status.txt:sim_num_insn                 300951 # total number of instructions committed
./stringsearch/512_nset4_bsize64_asso2_status.txt:sim_num_insn                 300951 # total number of instructions committed
./stringsearch/512_nset8_bsize16_asso4_status.txt:sim_num_insn                 300951 # total number of instructions committed
./stringsearch/512_nset8_bsize32_asso2_status.txt:sim_num_insn                 300951 # total number of instructions committed
./stringsearch/512_nset8_bsize64_asso1_status.txt:sim_num_insn                 300951 # total number of instructions committed
./stringsearch/64_nset1_bsize16_asso4_status.txt:sim_num_insn                 300951 # total number of instructions committed
./stringsearch/64_nset1_bsize32_asso2_status.txt:sim_num_insn                 300951 # total number of instructions committed
./stringsearch/64_nset1_bsize64_asso1_status.txt:sim_num_insn                 300951 # total number of instructions committed
./stringsearch/64_nset2_bsize16_asso2_status.txt:sim_num_insn                 300951 # total number of instructions committed
./stringsearch/64_nset2_bsize32_asso1_status.txt:sim_num_insn                 300951 # total number of instructions committed
./stringsearch/64_nset4_bsize16_asso1_status.txt:sim_num_insn                 300951 # total number of instructions committed
./stringsearch/65536_nset16_bsize128_asso32_status.txt:sim_num_insn                 300951 # total number of instructions committed
./stringsearch/65536_nset16_bsize256_asso16_status.txt:sim_num_insn                 300951 # total number of instructions committed
./stringsearch/65536_nset32_bsize128_asso16_status.txt:sim_num_insn                 300951 # total number of instructions committed
./stringsearch/65536_nset32_bsize256_asso8_status.txt:sim_num_insn                 300951 # total number of instructions committed
./stringsearch/65536_nset32_bsize64_asso32_status.txt:sim_num_insn                 300951 # total number of instructions committed
./stringsearch/65536_nset8_bsize256_asso32_status.txt:sim_num_insn                 300951 # total number of instructions committed
./stringsearch/8192_nset16_bsize128_asso4_status.txt:sim_num_insn                 300951 # total number of instructions committed
./stringsearch/8192_nset16_bsize16_asso32_status.txt:sim_num_insn                 300951 # total number of instructions committed
./stringsearch/8192_nset16_bsize256_asso2_status.txt:sim_num_insn                 300951 # total number of instructions committed
./stringsearch/8192_nset16_bsize32_asso16_status.txt:sim_num_insn                 300951 # total number of instructions committed
./stringsearch/8192_nset16_bsize64_asso8_status.txt:sim_num_insn                 300951 # total number of instructions committed
./stringsearch/8192_nset1_bsize256_asso32_status.txt:sim_num_insn                 300951 # total number of instructions committed
./stringsearch/8192_nset2_bsize128_asso32_status.txt:sim_num_insn                 300951 # total number of instructions committed
./stringsearch/8192_nset2_bsize256_asso16_status.txt:sim_num_insn                 300951 # total number of instructions committed
./stringsearch/8192_nset32_bsize128_asso2_status.txt:sim_num_insn                 300951 # total number of instructions committed
./stringsearch/8192_nset32_bsize16_asso16_status.txt:sim_num_insn                 300951 # total number of instructions committed
./stringsearch/8192_nset32_bsize256_asso1_status.txt:sim_num_insn                 300951 # total number of instructions committed
./stringsearch/8192_nset32_bsize32_asso8_status.txt:sim_num_insn                 300951 # total number of instructions committed
./stringsearch/8192_nset32_bsize64_asso4_status.txt:sim_num_insn                 300951 # total number of instructions committed
./stringsearch/8192_nset4_bsize128_asso16_status.txt:sim_num_insn                 300951 # total number of instructions committed
./stringsearch/8192_nset4_bsize256_asso8_status.txt:sim_num_insn                 300951 # total number of instructions committed
./stringsearch/8192_nset4_bsize64_asso32_status.txt:sim_num_insn                 300951 # total number of instructions committed
./stringsearch/8192_nset8_bsize128_asso8_status.txt:sim_num_insn                 300951 # total number of instructions committed
./stringsearch/8192_nset8_bsize256_asso4_status.txt:sim_num_insn                 300951 # total number of instructions committed
./stringsearch/8192_nset8_bsize32_asso32_status.txt:sim_num_insn                 300951 # total number of instructions committed
./stringsearch/8192_nset8_bsize64_asso16_status.txt:sim_num_insn                 300951 # total number of instructions committed
