./stringsearch/0_nset64_bsize8_asso1_status.txt:sim_num_insn                 300951 # total number of instructions committed
./stringsearch/1024_nset512_bsize256_asso8_status.txt:sim_num_insn                 300951 # total number of instructions committed
./stringsearch/128_nset128_bsize128_asso8_status.txt:sim_num_insn                 300951 # total number of instructions committed
./stringsearch/128_nset128_bsize256_asso4_status.txt:sim_num_insn                 300951 # total number of instructions committed
./stringsearch/128_nset256_bsize128_asso4_status.txt:sim_num_insn                 300951 # total number of instructions committed
./stringsearch/128_nset256_bsize256_asso2_status.txt:sim_num_insn                 300951 # total number of instructions committed
./stringsearch/128_nset256_bsize64_asso8_status.txt:sim_num_insn                 300951 # total number of instructions committed
./stringsearch/128_nset512_bsize128_asso2_status.txt:sim_num_insn                 300951 # total number of instructions committed
./stringsearch/128_nset512_bsize256_asso1_status.txt:sim_num_insn                 300951 # total number of instructions committed
./stringsearch/128_nset512_bsize32_asso8_status.txt:sim_num_insn                 300951 # total number of instructions committed
./stringsearch/128_nset512_bsize64_asso4_status.txt:sim_num_insn                 300951 # total number of instructions committed
./stringsearch/128_nset64_bsize256_asso8_status.txt:sim_num_insn                 300951 # total number of instructions committed
./stringsearch/16_nset128_bsize128_asso1_status.txt:sim_num_insn                 300951 # total number of instructions committed
./stringsearch/16_nset128_bsize16_asso8_status.txt:sim_num_insn                 300951 # total number of instructions committed
./stringsearch/16_nset128_bsize32_asso4_status.txt:sim_num_insn                 300951 # total number of instructions committed
./stringsearch/16_nset128_bsize64_asso2_status.txt:sim_num_insn                 300951 # total number of instructions committed
./stringsearch/16_nset256_bsize16_asso4_status.txt:sim_num_insn                 300951 # total number of instructions committed
./stringsearch/16_nset256_bsize32_asso2_status.txt:sim_num_insn                 300951 # total number of instructions committed
./stringsearch/16_nset256_bsize64_asso1_status.txt:sim_num_insn                 300951 # total number of instructions committed
./stringsearch/16_nset256_bsize8_asso8_status.txt:sim_num_insn                 300951 # total number of instructions committed
./stringsearch/16_nset512_bsize16_asso2_status.txt:sim_num_insn                 300951 # total number of instructions committed
./stringsearch/16_nset512_bsize32_asso1_status.txt:sim_num_insn                 300951 # total number of instructions committed
./stringsearch/16_nset512_bsize8_asso4_status.txt:sim_num_insn                 300951 # total number of instructions committed
./stringsearch/16_nset64_bsize128_asso2_status.txt:sim_num_insn                 300951 # total number of instructions committed
./stringsearch/16_nset64_bsize256_asso1_status.txt:sim_num_insn                 300951 # total number of instructions committed
./stringsearch/16_nset64_bsize32_asso8_status.txt:sim_num_insn                 300951 # total number of instructions committed
./stringsearch/16_nset64_bsize64_asso4_status.txt:sim_num_insn                 300951 # total number of instructions committed
./stringsearch/1_nset128_bsize8_asso1_status.txt:sim_num_insn                 300951 # total number of instructions committed
./stringsearch/1_nset64_bsize16_asso1_status.txt:sim_num_insn                 300951 # total number of instructions committed
./stringsearch/1_nset64_bsize8_asso2_status.txt:sim_num_insn                 300951 # total number of instructions committed
./stringsearch/256_nset128_bsize256_asso8_status.txt:sim_num_insn                 300951 # total number of instructions committed
./stringsearch/256_nset256_bsize128_asso8_status.txt:sim_num_insn                 300951 # total number of instructions committed
./stringsearch/256_nset256_bsize256_asso4_status.txt:sim_num_insn                 300951 # total number of instructions committed
./stringsearch/256_nset512_bsize128_asso4_status.txt:sim_num_insn                 300951 # total number of instructions committed
./stringsearch/256_nset512_bsize256_asso2_status.txt:sim_num_insn                 300951 # total number of instructions committed
./stringsearch/256_nset512_bsize64_asso8_status.txt:sim_num_insn                 300951 # total number of instructions committed
./stringsearch/2_nset128_bsize16_asso1_status.txt:sim_num_insn                 300951 # total number of instructions committed
./stringsearch/2_nset128_bsize8_asso2_status.txt:sim_num_insn                 300951 # total number of instructions committed
./stringsearch/2_nset256_bsize8_asso1_status.txt:sim_num_insn                 300951 # total number of instructions committed
./stringsearch/2_nset64_bsize16_asso2_status.txt:sim_num_insn                 300951 # total number of instructions committed
./stringsearch/2_nset64_bsize32_asso1_status.txt:sim_num_insn                 300951 # total number of instructions committed
./stringsearch/2_nset64_bsize8_asso4_status.txt:sim_num_insn                 300951 # total number of instructions committed
./stringsearch/32_nset128_bsize128_asso2_status.txt:sim_num_insn                 300951 # total number of instructions committed
./stringsearch/32_nset128_bsize256_asso1_status.txt:sim_num_insn                 300951 # total number of instructions committed
./stringsearch/32_nset128_bsize32_asso8_status.txt:sim_num_insn                 300951 # total number of instructions committed
./stringsearch/32_nset128_bsize64_asso4_status.txt:sim_num_insn                 300951 # total number of instructions committed
./stringsearch/32_nset256_bsize128_asso1_status.txt:sim_num_insn                 300951 # total number of instructions committed
./stringsearch/32_nset256_bsize16_asso8_status.txt:sim_num_insn                 300951 # total number of instructions committed
./stringsearch/32_nset256_bsize32_asso4_status.txt:sim_num_insn                 300951 # total number of instructions committed
./stringsearch/32_nset256_bsize64_asso2_status.txt:sim_num_insn                 300951 # total number of instructions committed
./stringsearch/32_nset512_bsize16_asso4_status.txt:sim_num_insn                 300951 # total number of instructions committed
./stringsearch/32_nset512_bsize32_asso2_status.txt:sim_num_insn                 300951 # total number of instructions committed
./stringsearch/32_nset512_bsize64_asso1_status.txt:sim_num_insn                 300951 # total number of instructions committed
./stringsearch/32_nset512_bsize8_asso8_status.txt:sim_num_insn                 300951 # total number of instructions committed
./stringsearch/32_nset64_bsize128_asso4_status.txt:sim_num_insn                 300951 # total number of instructions committed
./stringsearch/32_nset64_bsize256_asso2_status.txt:sim_num_insn                 300951 # total number of instructions committed
./stringsearch/32_nset64_bsize64_asso8_status.txt:sim_num_insn                 300951 # total number of instructions committed
./stringsearch/4_nset128_bsize16_asso2_status.txt:sim_num_insn                 300951 # total number of instructions committed
./stringsearch/4_nset128_bsize32_asso1_status.txt:sim_num_insn                 300951 # total number of instructions committed
./stringsearch/4_nset128_bsize8_asso4_status.txt:sim_num_insn                 300951 # total number of instructions committed
./stringsearch/4_nset256_bsize16_asso1_status.txt:sim_num_insn                 300951 # total number of instructions committed
./stringsearch/4_nset256_bsize8_asso2_status.txt:sim_num_insn                 300951 # total number of instructions committed
./stringsearch/4_nset512_bsize8_asso1_status.txt:sim_num_insn                 300951 # total number of instructions committed
./stringsearch/4_nset64_bsize16_asso4_status.txt:sim_num_insn                 300951 # total number of instructions committed
./stringsearch/4_nset64_bsize32_asso2_status.txt:sim_num_insn                 300951 # total number of instructions committed
./stringsearch/4_nset64_bsize64_asso1_status.txt:sim_num_insn                 300951 # total number of instructions committed
./stringsearch/4_nset64_bsize8_asso8_status.txt:sim_num_insn                 300951 # total number of instructions committed
./stringsearch/512_nset256_bsize256_asso8_status.txt:sim_num_insn                 300951 # total number of instructions committed
./stringsearch/512_nset512_bsize128_asso8_status.txt:sim_num_insn                 300951 # total number of instructions committed
./stringsearch/512_nset512_bsize256_asso4_status.txt:sim_num_insn                 300951 # total number of instructions committed
./stringsearch/64_nset128_bsize128_asso4_status.txt:sim_num_insn                 300951 # total number of instructions committed
./stringsearch/64_nset128_bsize256_asso2_status.txt:sim_num_insn                 300951 # total number of instructions committed
./stringsearch/64_nset128_bsize64_asso8_status.txt:sim_num_insn                 300951 # total number of instructions committed
./stringsearch/64_nset256_bsize128_asso2_status.txt:sim_num_insn                 300951 # total number of instructions committed
./stringsearch/64_nset256_bsize256_asso1_status.txt:sim_num_insn                 300951 # total number of instructions committed
./stringsearch/64_nset256_bsize32_asso8_status.txt:sim_num_insn                 300951 # total number of instructions committed
./stringsearch/64_nset256_bsize64_asso4_status.txt:sim_num_insn                 300951 # total number of instructions committed
./stringsearch/64_nset512_bsize128_asso1_status.txt:sim_num_insn                 300951 # total number of instructions committed
./stringsearch/64_nset512_bsize16_asso8_status.txt:sim_num_insn                 300951 # total number of instructions committed
./stringsearch/64_nset512_bsize32_asso4_status.txt:sim_num_insn                 300951 # total number of instructions committed
./stringsearch/64_nset512_bsize64_asso2_status.txt:sim_num_insn                 300951 # total number of instructions committed
./stringsearch/64_nset64_bsize128_asso8_status.txt:sim_num_insn                 300951 # total number of instructions committed
./stringsearch/64_nset64_bsize256_asso4_status.txt:sim_num_insn                 300951 # total number of instructions committed
./stringsearch/8_nset128_bsize16_asso4_status.txt:sim_num_insn                 300951 # total number of instructions committed
./stringsearch/8_nset128_bsize32_asso2_status.txt:sim_num_insn                 300951 # total number of instructions committed
./stringsearch/8_nset128_bsize64_asso1_status.txt:sim_num_insn                 300951 # total number of instructions committed
./stringsearch/8_nset128_bsize8_asso8_status.txt:sim_num_insn                 300951 # total number of instructions committed
./stringsearch/8_nset256_bsize16_asso2_status.txt:sim_num_insn                 300951 # total number of instructions committed
./stringsearch/8_nset256_bsize32_asso1_status.txt:sim_num_insn                 300951 # total number of instructions committed
./stringsearch/8_nset256_bsize8_asso4_status.txt:sim_num_insn                 300951 # total number of instructions committed
./stringsearch/8_nset512_bsize16_asso1_status.txt:sim_num_insn                 300951 # total number of instructions committed
./stringsearch/8_nset512_bsize8_asso2_status.txt:sim_num_insn                 300951 # total number of instructions committed
./stringsearch/8_nset64_bsize128_asso1_status.txt:sim_num_insn                 300951 # total number of instructions committed
./stringsearch/8_nset64_bsize16_asso8_status.txt:sim_num_insn                 300951 # total number of instructions committed
./stringsearch/8_nset64_bsize32_asso4_status.txt:sim_num_insn                 300951 # total number of instructions committed
./stringsearch/8_nset64_bsize64_asso2_status.txt:sim_num_insn                 300951 # total number of instructions committed
